src/dss-models/ieee-13-bus/components/Regulators_IEEE13.dss
! ===================================================================================================================================== !
!                                                       Feeder 1 Regulators                                                             !
! ===================================================================================================================================== !
!
! ------------------------------------------------------------ Reg1 ------------------------------------------------------------------- !
New Transformer.Reg1 phases=1 XHL=0.01 kVAs=[1666 1666]
~ Buses=[650.1 RG60.1] kVs=[2.4  2.4] %LoadLoss=0.01
new regcontrol.Reg1  transformer=Reg1 winding=2  vreg=122  band=2  ptratio=20 ctprim=700  R=3   X=9
!
Transformer.Reg1.Taps=[1.0 1.0500]
! ------------------------------------------------------------------------------------------------------------------------------------- !
!
! ------------------------------------------------------------ Reg2 ------------------------------------------------------------------- !
New Transformer.Reg2 phases=1 XHL=0.01 kVAs=[1666 1666]
~ Buses=[650.2 RG60.2] kVs=[2.4  2.4] %LoadLoss=0.01
new regcontrol.Reg2  transformer=Reg2 winding=2  vreg=122  band=2  ptratio=20 ctprim=700  R=3   X=9
Transformer.Reg2.Taps=[1.0 1.0500]
!
! ------------------------------------------------------------------------------------------------------------------------------------- !
!
! ------------------------------------------------------------ Reg3 ------------------------------------------------------------------- !
New Transformer.Reg3 phases=1 XHL=0.01 kVAs=[1666 1666]
~ Buses=[650.3 RG60.3] kVs=[2.4  2.4] %LoadLoss=0.01
new regcontrol.Reg3  transformer=Reg3 winding=2  vreg=122  band=2  ptratio=20 ctprim=700  R=3   X=9
Transformer.Reg3.Taps=[1.0 1.0500]
! ------------------------------------------------------------------------------------------------------------------------------------- !
! ===================================================================================================================================== !
